grid_yakima.glm
//Input feeder information for IEEE 13 node with different cases.
//Started on 10/21/09. This version created 02-Sep-2016 17:46:30.

clock {
     timezone PST+8PDT;
     starttime '2000-08-01 00:00:00';
     stoptime '2000-08-31 00:00:00';
}

#include "/home/sanjaya/Desktop/game/light_schedule.glm";
#include "/home/sanjaya/Desktop/game/water_and_setpoint_schedule.glm";
#define stylesheet=http://gridlab-d.svn.sourceforge.net/viewvc/gridlab-d/trunk/core/gridlabd-2_0
#set minimum_timestep=60;
#set profiler=1;
#set relax_naming_rules=1;

module tape;
module climate;
module generators;
module residential {
     implicit_enduses NONE;
};
module powerflow {
     solver_method FBS;
     NR_iteration_limit 50;
};

module market;

class auction {
    double current_price_mean_24h;
    double current_price_stdev_24h;
}
object auction {
    name Market_pool;
    special_mode NONE;
    unit kW;
    period 900;
    init_price 0.14;
    init_stdev 5;
    warmup 0;
    object multi_recorder {
        property current_market.clearing_price,current_market.clearing_quantity,current_market.seller_total_quantity,current_market.buyer_total_quantity,current_market.clearing_type;
        file "market_3.csv";
        interval 900;
        limit 11111111111168;
 	};
}

object stub_bidder{
    name seller_1;
    role SELLER;
    bid_period 900;
    market Market_pool;
    price 0.3;
    quantity 2400;
    count 10000;
};

object climate {
     name "Yakima WA";
     tmyfile "WA-Yakima.tmy2";
     interpolate QUADRATIC;
	object multi_recorder {
	property temperature,humidity,wind_speed,solar_global;
	file "weather1.csv";
	interval 900;
        limit 1111111111168;
	};
};

//Configurations

object overhead_line_conductor {     
      name overhead_line_conductor_6010;     
      geometric_mean_radius 0.031300;     
      resistance 0.185900;     
}       

object overhead_line_conductor {     
      name overhead_line_conductor_6020;     
      geometric_mean_radius 0.00814;     
      resistance 0.592000;     
}       

object overhead_line_conductor {     
      name overhead_line_conductor_6030;     
      geometric_mean_radius 0.004460;     
      resistance 1.120000;     
}       

object underground_line_conductor {     
      name underground_line_conductor_6060;     
      outer_diameter 1.290000;     
      conductor_gmr 0.017100;     
      conductor_diameter 0.567000;     
      conductor_resistance 0.410000;     
      neutral_gmr 0.0020800;     
      neutral_resistance 14.87200;     
      neutral_diameter 0.0640837;     
      neutral_strands 13.000000;     
      shield_gmr 0.000000;     
      shield_resistance 0.000000;     
}       

object underground_line_conductor {     
      name underground_line_conductor_6070;     
      outer_diameter 1.060000;     
      conductor_gmr 0.011100;     
      conductor_diameter 0.368000;     
      conductor_resistance 0.970000;     
      neutral_gmr 0.011100;     
      neutral_resistance 0.970000;     
      neutral_diameter 0.0640837;     
      neutral_strands 6.000000;     
      shield_gmr 0.000000;     
      shield_resistance 0.000000;     
}       

object line_spacing {     
      name line_spacing_500601;     
      distance_AB 2.5;     
      distance_AC 4.5;     
      distance_BC 7.0;     
      distance_BN 5.656854;     
      distance_AN 4.272002;     
      distance_CN 5.0;     
}       

object line_spacing {     
      name line_spacing_500602;     
      distance_AC 2.5;     
      distance_AB 4.5;     
      distance_BC 7.0;     
      distance_CN 5.656854;     
      distance_AN 4.272002;     
      distance_BN 5.0;     
}       

object line_spacing {     
      name line_spacing_505603;     
      distance_AC 0.0;     
      distance_AB 0.0;     
      distance_BC 7.0;     
      distance_AN 0.0;     
      distance_CN 5.656854;     
      distance_BN 5.0;     
}       

object line_spacing {     
      name line_spacing_505604;     
      distance_AC 7.0;     
      distance_AB 0.0;     
      distance_BC 0.0;     
      distance_AN 5.656854;     
      distance_CN 5.0;     
      distance_BN 0.0;     
}       

object line_spacing {     
      name line_spacing_510;     
      distance_AC 0.0;     
      distance_AB 0.0;     
      distance_BC 0.0;     
      distance_AN 0.0;     
      distance_CN 5.0;     
      distance_BN 0.0;     
}       

object line_configuration {     
      name line_configuration_601;     
      conductor_A overhead_line_conductor_6010;     
      conductor_B overhead_line_conductor_6010;     
      conductor_C overhead_line_conductor_6010;     
      conductor_N overhead_line_conductor_6020;     
      spacing line_spacing_500601;     
}       

object line_configuration {     
      name line_configuration_602;     
      conductor_A overhead_line_conductor_6020;     
      conductor_B overhead_line_conductor_6020;     
      conductor_C overhead_line_conductor_6020;     
      conductor_N overhead_line_conductor_6020;     
      spacing line_spacing_500602;     
}       

object line_configuration {     
      name line_configuration_603;     
      conductor_B overhead_line_conductor_6030;     
      conductor_C overhead_line_conductor_6030;     
      conductor_N overhead_line_conductor_6030;     
      spacing line_spacing_505603;     
}       

object line_configuration {     
      name line_configuration_604;     
      conductor_A overhead_line_conductor_6030;     
      conductor_C overhead_line_conductor_6030;     
      conductor_N overhead_line_conductor_6030;     
      spacing line_spacing_505604;     
}       

object line_configuration {     
      name line_configuration_605;     
      conductor_C overhead_line_conductor_6030;     
      conductor_N overhead_line_conductor_6030;     
      spacing line_spacing_510;     
}       

object line_spacing {     
      name line_spacing_515;     
      distance_AB 0.500000;     
      distance_BC 0.500000;     
      distance_AC 1.000000;     
      distance_AN 0.000000;     
      distance_BN 0.000000;     
      distance_CN 0.000000;     
}       

object line_spacing {     
      name line_spacing_520;     
      distance_AB 0.000000;     
      distance_BC 0.000000;     
      distance_AC 0.000000;     
      distance_AN 0.083333;     
      distance_BN 0.000000;     
      distance_CN 0.000000;     
}       

object line_configuration {     
      name line_configuration_606;     
      conductor_A underground_line_conductor_6060;     
      conductor_B underground_line_conductor_6060;     
      conductor_C underground_line_conductor_6060;     
      spacing line_spacing_515;     
}       

object line_configuration {     
      name line_configuration_607;     
      conductor_A underground_line_conductor_6070;     
      conductor_N underground_line_conductor_6070;     
      spacing line_spacing_520;     
}       

object transformer_configuration {     
      name transformer_configuration_400;     
      connect_type WYE_WYE;     
      install_type PADMOUNT;     
      power_rating 500;     
      primary_voltage 4160;     
      secondary_voltage 480;     
      resistance 0.011;     
      reactance 0.02;     
}       

object regulator_configuration {     
      name regulator_configuration_6506321;     
      connect_type 1;     
      band_center 2401;     
      band_width 40;     
      time_delay 30.0;     
      raise_taps 16;     
      lower_taps 16;     
      current_transducer_ratio 700;     
      power_transducer_ratio 20;     
      compensator_r_setting_A 3.0;     
      compensator_r_setting_B 3.0;     
      compensator_r_setting_C 3.0;     
      compensator_x_setting_A 9.0;     
      compensator_x_setting_B 9.0;     
      compensator_x_setting_C 9.0;     
      CT_phase ABC;     
      PT_phase ABC;     
      regulation 0.10;     
      Control OUTPUT_VOLTAGE;     
      Type A;     
      tap_pos_A 1;     
      tap_pos_B 1;     
      tap_pos_C 1;     
}       

object transformer_configuration {
     name trans_config_to_feeder_1;
     connect_type WYE_WYE;
     install_type PADMOUNT;
     primary_voltage 33000;
     secondary_voltage 2401.777;
     power_rating 10 MVA;
     impedance 0.00033+0.0022j;
}

object node {
     name network_node_1;
     bustype SWING;
     nominal_voltage 33000;
     phases ABCN;
}

object transformer {
     name substation_transformer_12;
     object recorder {
          file IEEE_13_ho_magda_biddingDR_transformer_power.csv;
          interval 60;
          limit 1440;
          property power_in_A.real,power_in_A.imag,power_in_B.real,power_in_B.imag,power_in_C.real,power_in_C.imag,power_out_A.real,power_out_A.imag,power_out_B.real,power_out_B.imag,power_out_C.real,power_out_C.imag,power_losses_A.real,power_losses_A.imag;
     };
     groupid Distribution_Trans;
     from network_node_1;
     to 650;
     phases ABCN;
     configuration trans_config_to_feeder_1;
}


object overhead_line {     
      groupid Distribution_Line;
      phases BCN;     
      name 632-645;     
      from 632;     
      to 645;     
      length 500;     
      configuration line_configuration_603;     
}       
object overhead_line {     
      groupid Distribution_Line;
      phases BCN;     
      name 645-646;     
      from 645;     
      to 646;     
      length 300;     
      configuration line_configuration_603;     
}       
object overhead_line {     
      groupid Distribution_Line;
      phases ABCN;     
      name 630-632;     
      from 630;     
      to 632;     
      length 2000;     
      configuration line_configuration_601;     
}       
object overhead_line {     
      groupid Distribution_Line;
      phases ABCN;     
      name 632-6321;     
      from 632;     
      to 6321;     
      length 500;     
      configuration line_configuration_601;     
}       
object overhead_line {     
      groupid Distribution_Line;
      phases ABCN;     
      name 6321-671;     
      from 6321;     
      to 671;     
      length 1500;     
      configuration line_configuration_601;     
}       
object overhead_line {     
      groupid Distribution_Line;
      phases ABCN;     
      name 671-680;     
      from 671;     
      to 680;     
      length 1000;     
      configuration line_configuration_601;     
}       
object overhead_line {     
      groupid Distribution_Line;
      phases ACN;     
      name 671-684;     
      from 671;     
      to 684;     
      length 300;     
      configuration line_configuration_604;     
}       
object overhead_line {     
      groupid Distribution_Line;
      phases CN;     
      name 684-611;     
      from 684;     
      to 611;     
      length 300;     
      configuration line_configuration_605;     
}       
object underground_line {     
      groupid Distribution_Line;
      phases AN;     
      name 684-652;     
      from 684;     
      to 652;     
      length 800;     
      configuration line_configuration_607;     
}       
object underground_line {     
      groupid Distribution_Line;
      phases ABC;     
      name 692-675;     
      from 692;     
      to 675;     
      length 2500;     
      configuration line_configuration_606;     
}       
object overhead_line {     
      groupid Distribution_Line;
      phases ABCN;     
      name 632-633;     
      from 632;     
      to 633;     
      length 500;     
      configuration line_configuration_602;     
}       
object node {     
      name 633;     
      phases ABCN;     
      voltage_A 2401.7771;     
      voltage_B -1200.8886-2080.000j;     
      voltage_C -1200.8886+2080.000j;     
      nominal_voltage 2401.7771;     
}       
object node {     
      name 630;     
      phases ABCN;     
      voltage_A 2401.7771+0j;     
      voltage_B -1200.8886-2080.000j;     
      voltage_C -1200.8886+2080.000j;     
      nominal_voltage 2401.7771;     
}       
object node {     
      name 632;     
      phases ABCN;     
      voltage_A 2401.7771;     
      voltage_B -1200.8886-2080.000j;     
      voltage_C -1200.8886+2080.000j;     
      nominal_voltage 2401.7771;     
}       
object node {     
      name 650;     
      phases ABCN;     
      voltage_A 2401.7771;     
      voltage_B -1200.8886-2080.000j;     
      voltage_C -1200.8886+2080.000j;     
      nominal_voltage 2401.7771;     
}       
object node {     
      name 680;     
      phases ABCN;     
      voltage_A 2401.7771;     
      voltage_B -1200.8886-2080.000j;     
      voltage_C -1200.8886+2080.000j;     
      nominal_voltage 2401.7771;     
}       
object node {     
      name 684;     
      phases ACN;     
      voltage_A 2401.7771;     
      voltage_B -1200.8886-2080.000j;     
      voltage_C -1200.8886+2080.000j;     
      nominal_voltage 2401.7771;     
}       
object node {     
      name 634;     
      phases ABCN;     
      voltage_A 480.000+0j;     
      voltage_B -240.000-415.6922j;     
      voltage_C -240.000+415.6922j;     
      nominal_voltage 480.000;     
}       

object node {
      name 645;     
      phases BCN;     
      nominal_voltage 2401.7771;     
}


object node {
      name 646;     
      phases BC;     
      nominal_voltage 2401.7771;     
}


object node {
      name 652;     
      phases AN;     
      nominal_voltage 2401.7771;     
}


object node {
      name 671;     
      phases ABC;     
      nominal_voltage 2401.7771;     
}


object node {
      name 675;     
      phases ABC;     
      nominal_voltage 2401.7771;     
}


object node {
      name 692;     
      phases ABC;     
      nominal_voltage 2401.7771;     
}


object node {
      name 611;     
      phases CN;     
      nominal_voltage 2401.7771;     
}


object node {
      name 6711;     
      parent 671;     
      phases ABC;     
      nominal_voltage 2401.7771;     
}


object node {
      name 6321;     
      phases ABCN;     
      nominal_voltage 2401.7771;     
}

object switch {     
      phases ABCN;     
      name 671-692;     
      from 671;     
      to 692;     
      status CLOSED;     
}       
object transformer {     
      groupid Distribution_Trans;
      phases ABCN;     
      name 633-634;     
      from 633;     
      to 634;     
      configuration transformer_configuration_400;     
}       
object regulator {     
      name Reg1;     
      phases ABC;     
      from 650;     
      to 630;     
      configuration regulator_configuration_6506321;     
}       
object capacitor {     
      phases ABCN;     
      name CAP1;     
      pt_phase ABCN;     
      parent 675;     
      phases_connected ABCN;     
      control VOLT;     
      voltage_set_high 2700.0;     
      voltage_set_low 2250.0;     
      capacitor_A 0.10 MVAr;    
      capacitor_B 0.10 MVAr;    
      capacitor_C 0.10 MVAr;    
      control_level INDIVIDUAL;     
      time_delay 300.0;     
      dwell_time 0.0;     
      switchA CLOSED;     
      switchB CLOSED;     
      switchC CLOSED;     
      nominal_voltage 2401.7771;     
}       
object capacitor {     
      phases ABCN;     
      name CAP2;     
      pt_phase ABCN;     
      parent 675;     
      phases_connected ABCN;     
      control VOLT;     
      voltage_set_high 2600.0;     
      voltage_set_low 2150.0;     
      capacitor_A 0.05 MVAr;    
      capacitor_B 0.05 MVAr;    
      capacitor_C 0.05 MVAr;    
      control_level INDIVIDUAL;     
      time_delay 300.0;     
      dwell_time 0.0;     
      switchA CLOSED;     
      switchB CLOSED;     
      switchC CLOSED;     
      nominal_voltage 2401.7771;     
}       
object triplex_line_configuration {
      name trip_line_config_1;
      conductor_1 object triplex_line_conductor {
            resistance 0.97;
            geometric_mean_radius 0.01111;
            };
      conductor_2 object triplex_line_conductor {
            resistance 0.97;
            geometric_mean_radius 0.01111;
            };
      conductor_N object triplex_line_conductor {
            resistance 0.97;
            geometric_mean_radius 0.01111;
            };
      insulation_thickness 0.08;
      diameter 0.368;
}
object transformer {
       name CTTF_B_645;
       phases BS;
       from 645;
       to tn_B_645;
       configuration object transformer_configuration {
            connect_type SINGLE_PHASE_CENTER_TAPPED;
            install_type POLETOP;
            shunt_impedance 10000+10000j;
            primary_voltage 2401.777;
            secondary_voltage 120;
            powerB_rating 215 kVA;
            impedance 0.00033+0.0022j;
       };
       groupid Distribution_Trans;
}

object triplex_meter {
       name tn_B_645;
       phases BS;
       nominal_voltage 120;
}

object triplex_line {
       name tl_B_1_645;
       phases BS;
       from tn_B_645;
       to tm_B_1_645;
       length 16.35;
       configuration trip_line_config_1;
       groupid Triplex_Line;
}

object triplex_meter {
       name tm_B_1_645;
       phases BS;
       nominal_voltage 120;
       groupid House_Meter;
}

object house {
     parent tm_B_1_645;
     name house1B_tm_B_1_645;
     floor_area 1716;
     schedule_skew 722;
     heating_system_type GAS;
     cooling_system_type ELECTRIC;

     object controller {
           schedule_skew 722;
           market Market_pool;
           bid_mode ON;
           control_mode DOUBLE_RAMP;
           resolve_mode DEADBAND;
           slider_setting_heat 0.500;
           slider_setting_cool 0.500;
           heating_base_setpoint heating7*1;
           cooling_base_setpoint cooling3*1;
           period 900;
           average_target current_price_mean_24h;
           standard_deviation_target current_price_stdev_24h;
           target air_temperature;
           heating_setpoint heating_setpoint;
           heating_demand last_heating_load;
           cooling_setpoint cooling_setpoint;
           cooling_demand last_cooling_load;
           deadband thermostat_deadband;
           total hvac_load;
           load hvac_load;
           state power_state;
           object multi_recorder {
                property bid_price,bid_quantity,house1B_tm_B_1_645:power_state,house1B_tm_B_1_645:air_temperature,house1B_tm_B_1_645:system_mode,house1B_tm_B_1_645:hvac_load,house1B_tm_B_1_645:outdoor_temperature,house1B_tm_B_1_645:heating_setpoint,house1B_tm_B_1_645:cooling_setpoint,house1B_tm_B_1_645:design_heating_capacity,house1B_tm_B_1_645:design_cooling_capacity,house1B_tm_B_1_645:heating_COP,house1B_tm_B_1_645:cooling_COP,house1B_tm_B_1_645:heating_demand,house1B_tm_B_1_645:cooling_demand;
                file "house1B_tm_B_1_645.csv";
                interval 900;
                limit 1111111111168;
           };
       };

     thermal_integrity_level 3;
     air_temperature 70;
     mass_temperature 70;
     cooling_COP 2.5;
     object ZIPload {
           base_power LIGHTS*0.91;
           schedule_skew 722;
           heatgain_fraction 0.9;
           power_pf 1.000;
           current_pf 1.000;
           impedance_pf 1.000;
           impedance_fraction 0.300000;
           current_fraction 0.300000;
           power_fraction 0.400000;
     };
}

object triplex_line {
       name tl_B_2_645;
       phases BS;
       from tn_B_645;
       to tm_B_2_645;
       length 18.54;
       configuration trip_line_config_1;
       groupid Triplex_Line;
}

object triplex_meter {
       name tm_B_2_645;
       phases BS;
       nominal_voltage 120;
       groupid House_Meter;
}

object house {
     parent tm_B_2_645;
     name house2B_tm_B_2_645;
     floor_area 1992;
     schedule_skew 1004;
     heating_system_type HEAT_PUMP;
     heating_COP 3.0;
     cooling_system_type ELECTRIC;

     object controller {
           schedule_skew 1004;
           market Market_pool;
           bid_mode ON;
           control_mode DOUBLE_RAMP;
           resolve_mode DEADBAND;
           slider_setting_heat 0.500;
           slider_setting_cool 0.500;
           heating_base_setpoint heating4*1;
           cooling_base_setpoint cooling7*1;
           period 900;
           average_target current_price_mean_24h;
           standard_deviation_target current_price_stdev_24h;
           target air_temperature;
           heating_setpoint heating_setpoint;
           heating_demand last_heating_load;
           cooling_setpoint cooling_setpoint;
           cooling_demand last_cooling_load;
           deadband thermostat_deadband;
           total hvac_load;
           load hvac_load;
           state power_state;
           object multi_recorder {
                property bid_price,bid_quantity,house2B_tm_B_2_645:power_state,house2B_tm_B_2_645:air_temperature,house2B_tm_B_2_645:system_mode,house2B_tm_B_2_645:hvac_load,house2B_tm_B_2_645:outdoor_temperature,house2B_tm_B_2_645:heating_setpoint,house2B_tm_B_2_645:cooling_setpoint,house2B_tm_B_2_645:design_heating_capacity,house2B_tm_B_2_645:design_cooling_capacity,house2B_tm_B_2_645:heating_COP,house2B_tm_B_2_645:cooling_COP,house2B_tm_B_2_645:heating_demand,house2B_tm_B_2_645:cooling_demand;
                file "house2B_tm_B_2_645.csv";
                interval 900;
                limit 1111111111168;
           };
       };

     thermal_integrity_level 4;
     air_temperature 70;
     mass_temperature 70;
     cooling_COP 3.8;
     object ZIPload {
           base_power LIGHTS*0.96;
           schedule_skew 1004;
           heatgain_fraction 0.9;
           power_pf 1.000;
           current_pf 1.000;
           impedance_pf 1.000;
           impedance_fraction 0.300000;
           current_fraction 0.300000;
           power_fraction 0.400000;
     };
     object waterheater {
          schedule_skew 1004;
          tank_volume 50;
          heating_element_capacity 4.9 kW;
          tank_setpoint 133.8;
          temperature 135;
          thermostat_deadband 3.0;
          location INSIDE;
          tank_UA 3.7;
          demand water5*1;
          object passive_controller {
          	  period 900;
               control_mode PROBABILITY_OFF;
          	  distribution_type NORMAL;
          	  observation_object Market_pool;
          	  expectation_object Market_pool;
          	  comfort_level 1.00;
          	  state_property override;
          	  observation_property current_market.clearing_price;
          	  stdev_observation_property current_price_stdev_24h;
          	  expectation_property current_price_mean_24h;
          };
     };

}

object triplex_line {
       name tl_B_3_645;
       phases BS;
       from tn_B_645;
       to tm_B_3_645;
       length 14.47;
       configuration trip_line_config_1;
       groupid Triplex_Line;
}

object triplex_meter {
       name tm_B_3_645;
       phases BS;
       nominal_voltage 120;
       groupid House_Meter;
}

object house {
     parent tm_B_3_645;
     name house3B_tm_B_3_645;
     floor_area 1719;
     schedule_skew -1703;
     heating_system_type HEAT_PUMP;
     heating_COP 3.2;
     cooling_system_type ELECTRIC;

     object controller {
           schedule_skew -1703;
           market Market_pool;
           bid_mode ON;
           control_mode DOUBLE_RAMP;
           resolve_mode DEADBAND;
           slider_setting_heat 0.500;
           slider_setting_cool 0.500;
           heating_base_setpoint heating7*1;
           cooling_base_setpoint cooling5*1;
           period 900;
           average_target current_price_mean_24h;
           standard_deviation_target current_price_stdev_24h;
           target air_temperature;
           heating_setpoint heating_setpoint;
           heating_demand last_heating_load;
           cooling_setpoint cooling_setpoint;
           cooling_demand last_cooling_load;
           deadband thermostat_deadband;
           total hvac_load;
           load hvac_load;
           state power_state;
           object multi_recorder {
                property bid_price,bid_quantity,house3B_tm_B_3_645:power_state,house3B_tm_B_3_645:air_temperature,house3B_tm_B_3_645:system_mode,house3B_tm_B_3_645:hvac_load,house3B_tm_B_3_645:outdoor_temperature,house3B_tm_B_3_645:heating_setpoint,house3B_tm_B_3_645:cooling_setpoint,house3B_tm_B_3_645:design_heating_capacity,house3B_tm_B_3_645:design_cooling_capacity,house3B_tm_B_3_645:heating_COP,house3B_tm_B_3_645:cooling_COP,house3B_tm_B_3_645:heating_demand,house3B_tm_B_3_645:cooling_demand;
                file "house3B_tm_B_3_645.csv";
                interval 900;
                limit 1111111111168;
           };
       };

     thermal_integrity_level 6;
     air_temperature 70;
     mass_temperature 70;
     cooling_COP 4.0;
     object ZIPload {
           base_power LIGHTS*1.10;
           schedule_skew -1703;
           heatgain_fraction 0.9;
           power_pf 1.000;
           current_pf 1.000;
           impedance_pf 1.000;
           impedance_fraction 0.300000;
           current_fraction 0.300000;
           power_fraction 0.400000;
     };
     object waterheater {
          schedule_skew -1703;
          tank_volume 50;
          heating_element_capacity 4.7 kW;
          tank_setpoint 126.0;
          temperature 135;
          thermostat_deadband 4.2;
          location INSIDE;
          tank_UA 3.3;
          demand water9*1;
          object passive_controller {
          	  period 900;
               control_mode PROBABILITY_OFF;
          	  distribution_type NORMAL;
          	  observation_object Market_pool;
          	  expectation_object Market_pool;
          	  comfort_level 1.00;
          	  state_property override;
          	  observation_property current_market.clearing_price;
          	  stdev_observation_property current_price_stdev_24h;
          	  expectation_property current_price_mean_24h;
          };
     };

}

object triplex_line {
       name tl_B_4_645;
       phases BS;
       from tn_B_645;
       to tm_B_4_645;
       length 17.09;
       configuration trip_line_config_1;
       groupid Triplex_Line;
}

object triplex_meter {
       name tm_B_4_645;
       phases BS;
       nominal_voltage 120;
       groupid House_Meter;
}

object house {
     parent tm_B_4_645;
     name house4B_tm_B_4_645;
     floor_area 2109;
     schedule_skew 1472;
     heating_system_type HEAT_PUMP;
     heating_COP 2.8;
     cooling_system_type ELECTRIC;

     object controller {
           schedule_skew 1472;
           market Market_pool;
           bid_mode ON;
           control_mode DOUBLE_RAMP;
           resolve_mode DEADBAND;
           slider_setting_heat 0.500;
           slider_setting_cool 0.500;
           heating_base_setpoint heating3*1;
           cooling_base_setpoint cooling4*1;
           period 900;
           average_target current_price_mean_24h;
           standard_deviation_target current_price_stdev_24h;
           target air_temperature;
           heating_setpoint heating_setpoint;
           heating_demand last_heating_load;
           cooling_setpoint cooling_setpoint;
           cooling_demand last_cooling_load;
           deadband thermostat_deadband;
           total hvac_load;
           load hvac_load;
           state power_state;
           object multi_recorder {
                property bid_price,bid_quantity,house4B_tm_B_4_645:power_state,house4B_tm_B_4_645:air_temperature,house4B_tm_B_4_645:system_mode,house4B_tm_B_4_645:hvac_load,house4B_tm_B_4_645:outdoor_temperature,house4B_tm_B_4_645:heating_setpoint,house4B_tm_B_4_645:cooling_setpoint,house4B_tm_B_4_645:design_heating_capacity,house4B_tm_B_4_645:design_cooling_capacity,house4B_tm_B_4_645:heating_COP,house4B_tm_B_4_645:cooling_COP,house4B_tm_B_4_645:heating_demand,house4B_tm_B_4_645:cooling_demand;
                file "house4B_tm_B_4_645.csv";
                interval 900;
                limit 1111111111168;
           };
       };

     thermal_integrity_level 5;
     air_temperature 70;
     mass_temperature 70;
     cooling_COP 3.5;
     object ZIPload {
           base_power LIGHTS*1.15;
           schedule_skew 1472;
           heatgain_fraction 0.9;
           power_pf 1.000;
           current_pf 1.000;
           impedance_pf 1.000;
           impedance_fraction 0.300000;
           current_fraction 0.300000;
           power_fraction 0.400000;
     };
     object waterheater {
          schedule_skew 1472;
          tank_volume 50;
          heating_element_capacity 4.5 kW;
          tank_setpoint 136.3;
          temperature 135;
          thermostat_deadband 2.4;
          location INSIDE;
          tank_UA 3.4;
          demand water2*1;
          object passive_controller {
          	  period 900;
               control_mode PROBABILITY_OFF;
          	  distribution_type NORMAL;
          	  observation_object Market_pool;
          	  expectation_object Market_pool;
          	  comfort_level 1.00;
          	  state_property override;
          	  observation_property current_market.clearing_price;
          	  stdev_observation_property current_price_stdev_24h;
          	  expectation_property current_price_mean_24h;
          };
     };

}

object triplex_line {
       name tl_B_5_645;
       phases BS;
       from tn_B_645;
       to tm_B_5_645;
       length 17.07;
       configuration trip_line_config_1;
       groupid Triplex_Line;
}

object triplex_meter {
       name tm_B_5_645;
       phases BS;
       nominal_voltage 120;
       groupid House_Meter;
}

object house {
     parent tm_B_5_645;
     name house5B_tm_B_5_645;
     floor_area 1732;
     schedule_skew 2338;
     heating_system_type HEAT_PUMP;
     heating_COP 3.2;
     cooling_system_type ELECTRIC;

     object controller {
           schedule_skew 2338;
           market Market_pool;
           bid_mode ON;
           control_mode DOUBLE_RAMP;
           resolve_mode DEADBAND;
           slider_setting_heat 0.500;
           slider_setting_cool 0.500;
           heating_base_setpoint heating1*1;
           cooling_base_setpoint cooling8*1;
           period 900;
           average_target current_price_mean_24h;
           standard_deviation_target current_price_stdev_24h;
           target air_temperature;
           heating_setpoint heating_setpoint;
           heating_demand last_heating_load;
           cooling_setpoint cooling_setpoint;
           cooling_demand last_cooling_load;
           deadband thermostat_deadband;
           total hvac_load;
           load hvac_load;
           state power_state;
           object multi_recorder {
                property bid_price,bid_quantity,house5B_tm_B_5_645:power_state,house5B_tm_B_5_645:air_temperature,house5B_tm_B_5_645:system_mode,house5B_tm_B_5_645:hvac_load,house5B_tm_B_5_645:outdoor_temperature,house5B_tm_B_5_645:heating_setpoint,house5B_tm_B_5_645:cooling_setpoint,house5B_tm_B_5_645:design_heating_capacity,house5B_tm_B_5_645:design_cooling_capacity,house5B_tm_B_5_645:heating_COP,house5B_tm_B_5_645:cooling_COP,house5B_tm_B_5_645:heating_demand,house5B_tm_B_5_645:cooling_demand;
                file "house5B_tm_B_5_645.csv";
                interval 900;
                limit 1111111111168;
           };
       };

     thermal_integrity_level 5;
     air_temperature 70;
     mass_temperature 70;
     cooling_COP 3.2;
     object ZIPload {
           base_power LIGHTS*0.96;
           schedule_skew 2338;
           heatgain_fraction 0.9;
           power_pf 1.000;
           current_pf 1.000;
           impedance_pf 1.000;
           impedance_fraction 0.300000;
           current_fraction 0.300000;
           power_fraction 0.400000;
     };
     object waterheater {
          schedule_skew 2338;
          tank_volume 50;
          heating_element_capacity 4.6 kW;
          tank_setpoint 129.9;
          temperature 135;
          thermostat_deadband 4.3;
          location INSIDE;
          tank_UA 2.0;
          demand water18*1;
          object passive_controller {
          	  period 900;
               control_mode PROBABILITY_OFF;
          	  distribution_type NORMAL;
          	  observation_object Market_pool;
          	  expectation_object Market_pool;
          	  comfort_level 1.00;
          	  state_property override;
          	  observation_property current_market.clearing_price;
          	  stdev_observation_property current_price_stdev_24h;
          	  expectation_property current_price_mean_24h;
          };
     };

}

object triplex_line {
       name tl_B_6_645;
       phases BS;
       from tn_B_645;
       to tm_B_6_645;
       length 19.96;
       configuration trip_line_config_1;
       groupid Triplex_Line;
}

object triplex_meter {
       name tm_B_6_645;
       phases BS;
       nominal_voltage 120;
       groupid House_Meter;
}

object house {
     parent tm_B_6_645;
     name house6B_tm_B_6_645;
     floor_area 2280;
     schedule_skew 391;
     heating_system_type HEAT_PUMP;
     heating_COP 2.3;
     cooling_system_type ELECTRIC;

     object controller {
           schedule_skew 391;
           market Market_pool;
           bid_mode ON;
           control_mode DOUBLE_RAMP;
           resolve_mode DEADBAND;
           slider_setting_heat 0.500;
           slider_setting_cool 0.500;
           heating_base_setpoint heating8*1;
           cooling_base_setpoint cooling5*1;
           period 900;
           average_target current_price_mean_24h;
           standard_deviation_target current_price_stdev_24h;
           target air_temperature;
           heating_setpoint heating_setpoint;
           heating_demand last_heating_load;
           cooling_setpoint cooling_setpoint;
           cooling_demand last_cooling_load;
           deadband thermostat_deadband;
           total hvac_load;
           load hvac_load;
           state power_state;
           object multi_recorder {
                property bid_price,bid_quantity,house6B_tm_B_6_645:power_state,house6B_tm_B_6_645:air_temperature,house6B_tm_B_6_645:system_mode,house6B_tm_B_6_645:hvac_load,house6B_tm_B_6_645:outdoor_temperature,house6B_tm_B_6_645:heating_setpoint,house6B_tm_B_6_645:cooling_setpoint,house6B_tm_B_6_645:design_heating_capacity,house6B_tm_B_6_645:design_cooling_capacity,house6B_tm_B_6_645:heating_COP,house6B_tm_B_6_645:cooling_COP,house6B_tm_B_6_645:heating_demand,house6B_tm_B_6_645:cooling_demand;
                file "house6B_tm_B_6_645.csv";
                interval 900;
                limit 1111111111168;
           };
       };

     thermal_integrity_level 3;
     air_temperature 70;
     mass_temperature 70;
     cooling_COP 3.5;
     object ZIPload {
           base_power LIGHTS*0.98;
           schedule_skew 391;
           heatgain_fraction 0.9;
           power_pf 1.000;
           current_pf 1.000;
           impedance_pf 1.000;
           impedance_fraction 0.300000;
           current_fraction 0.300000;
           power_fraction 0.400000;
     };
     object waterheater {
          schedule_skew 391;
          tank_volume 50;
          heating_element_capacity 4.4 kW;
          tank_setpoint 129.5;
          temperature 135;
          thermostat_deadband 3.5;
          location INSIDE;
          tank_UA 2.2;
          demand water2*1;
          object passive_controller {
          	  period 900;
               control_mode PROBABILITY_OFF;
          	  distribution_type NORMAL;
          	  observation_object Market_pool;
          	  expectation_object Market_pool;
          	  comfort_level 1.00;
          	  state_property override;
          	  observation_property current_market.clearing_price;
          	  stdev_observation_property current_price_stdev_24h;
          	  expectation_property current_price_mean_24h;
          };
     };

}

object triplex_line {
       name tl_B_7_645;
       phases BS;
       from tn_B_645;
       to tm_B_7_645;
       length 12.26;
       configuration trip_line_config_1;
       groupid Triplex_Line;
}

object triplex_meter {
       name tm_B_7_645;
       phases BS;
       nominal_voltage 120;
       groupid House_Meter;
}

object house {
     parent tm_B_7_645;
     name house7B_tm_B_7_645;
     floor_area 2051;
     schedule_skew -218;
     heating_system_type HEAT_PUMP;
     heating_COP 2.2;
     cooling_system_type ELECTRIC;

     object controller {
           schedule_skew -218;
           market Market_pool;
           bid_mode ON;
           control_mode DOUBLE_RAMP;
           resolve_mode DEADBAND;
           slider_setting_heat 0.500;
           slider_setting_cool 0.500;
           heating_base_setpoint heating8*1;
           cooling_base_setpoint cooling6*1;
           period 900;
           average_target current_price_mean_24h;
           standard_deviation_target current_price_stdev_24h;
           target air_temperature;
           heating_setpoint heating_setpoint;
           heating_demand last_heating_load;
           cooling_setpoint cooling_setpoint;
           cooling_demand last_cooling_load;
           deadband thermostat_deadband;
           total hvac_load;
           load hvac_load;
           state power_state;
           object multi_recorder {
                property bid_price,bid_quantity,house7B_tm_B_7_645:power_state,house7B_tm_B_7_645:air_temperature,house7B_tm_B_7_645:system_mode,house7B_tm_B_7_645:hvac_load,house7B_tm_B_7_645:outdoor_temperature,house7B_tm_B_7_645:heating_setpoint,house7B_tm_B_7_645:cooling_setpoint,house7B_tm_B_7_645:design_heating_capacity,house7B_tm_B_7_645:design_cooling_capacity,house7B_tm_B_7_645:heating_COP,house7B_tm_B_7_645:cooling_COP,house7B_tm_B_7_645:heating_demand,house7B_tm_B_7_645:cooling_demand;
                file "house7B_tm_B_7_645.csv";
                interval 900;
                limit 1111111111168;
           };
       };

     thermal_integrity_level 6;
     air_temperature 70;
     mass_temperature 70;
     cooling_COP 2.5;
     object ZIPload {
           base_power LIGHTS*0.94;
           schedule_skew -218;
           heatgain_fraction 0.9;
           power_pf 1.000;
           current_pf 1.000;
           impedance_pf 1.000;
           impedance_fraction 0.300000;
           current_fraction 0.300000;
           power_fraction 0.400000;
     };
     object waterheater {
          schedule_skew -218;
          tank_volume 50;
          heating_element_capacity 4.4 kW;
          tank_setpoint 140.9;
          temperature 135;
          thermostat_deadband 2.7;
          location INSIDE;
          tank_UA 2.3;
          demand water8*1;
          object passive_controller {
          	  period 900;
               control_mode PROBABILITY_OFF;
          	  distribution_type NORMAL;
          	  observation_object Market_pool;
          	  expectation_object Market_pool;
          	  comfort_level 1.00;
          	  state_property override;
          	  observation_property current_market.clearing_price;
          	  stdev_observation_property current_price_stdev_24h;
          	  expectation_property current_price_mean_24h;
          };
     };

}

object triplex_line {
       name tl_B_8_645;
       phases BS;
       from tn_B_645;
       to tm_B_8_645;
       length 13.18;
       configuration trip_line_config_1;
       groupid Triplex_Line;
}

object triplex_meter {
       name tm_B_8_645;
       phases BS;
       nominal_voltage 120;
       groupid House_Meter;
}

object house {
     parent tm_B_8_645;
     name house8B_tm_B_8_645;
     floor_area 1804;
     schedule_skew 815;
     heating_system_type HEAT_PUMP;
     heating_COP 2.8;
     cooling_system_type ELECTRIC;

     object controller {
           schedule_skew 815;
           market Market_pool;
           bid_mode ON;
           control_mode DOUBLE_RAMP;
           resolve_mode DEADBAND;
           slider_setting_heat 0.500;
           slider_setting_cool 0.500;
           heating_base_setpoint heating4*1;
           cooling_base_setpoint cooling2*1;
           period 900;
           average_target current_price_mean_24h;
           standard_deviation_target current_price_stdev_24h;
           target air_temperature;
           heating_setpoint heating_setpoint;
           heating_demand last_heating_load;
           cooling_setpoint cooling_setpoint;
           cooling_demand last_cooling_load;
           deadband thermostat_deadband;
           total hvac_load;
           load hvac_load;
           state power_state;
           object multi_recorder {
                property bid_price,bid_quantity,house8B_tm_B_8_645:power_state,house8B_tm_B_8_645:air_temperature,house8B_tm_B_8_645:system_mode,house8B_tm_B_8_645:hvac_load,house8B_tm_B_8_645:outdoor_temperature,house8B_tm_B_8_645:heating_setpoint,house8B_tm_B_8_645:cooling_setpoint,house8B_tm_B_8_645:design_heating_capacity,house8B_tm_B_8_645:design_cooling_capacity,house8B_tm_B_8_645:heating_COP,house8B_tm_B_8_645:cooling_COP,house8B_tm_B_8_645:heating_demand,house8B_tm_B_8_645:cooling_demand;
                file "house8B_tm_B_8_645.csv";
                interval 900;
                limit 1111111111168;
           };
       };

     thermal_integrity_level 4;
     air_temperature 70;
     mass_temperature 70;
     cooling_COP 3.8;
     object ZIPload {
           base_power LIGHTS*0.78;
           schedule_skew 815;
           heatgain_fraction 0.9;
           power_pf 1.000;
           current_pf 1.000;
           impedance_pf 1.000;
           impedance_fraction 0.300000;
           current_fraction 0.300000;
           power_fraction 0.400000;
     };
     object waterheater {
          schedule_skew 815;
          tank_volume 50;
          heating_element_capacity 4.6 kW;
          tank_setpoint 129.8;
          temperature 135;
          thermostat_deadband 4.8;
          location INSIDE;
          tank_UA 4.0;
          demand water18*1;
          object passive_controller {
          	  period 900;
               control_mode PROBABILITY_OFF;
          	  distribution_type NORMAL;
          	  observation_object Market_pool;
          	  expectation_object Market_pool;
          	  comfort_level 1.00;
          	  state_property override;
          	  observation_property current_market.clearing_price;
          	  stdev_observation_property current_price_stdev_24h;
          	  expectation_property current_price_mean_24h;
          };
     };

}

object triplex_line {
       name tl_B_9_645;
       phases BS;
       from tn_B_645;
       to tm_B_9_645;
       length 11.27;
       configuration trip_line_config_1;
       groupid Triplex_Line;
}

object triplex_meter {
       name tm_B_9_645;
       phases BS;
       nominal_voltage 120;
       groupid House_Meter;
}

object house {
     parent tm_B_9_645;
     name house9B_tm_B_9_645;
     floor_area 1734;
     schedule_skew -1191;
     heating_system_type HEAT_PUMP;
     heating_COP 2.1;
     cooling_system_type ELECTRIC;

     object controller {
           schedule_skew -1191;
           market Market_pool;
           bid_mode ON;
           control_mode DOUBLE_RAMP;
           resolve_mode DEADBAND;
           slider_setting_heat 0.500;
           slider_setting_cool 0.500;
           heating_base_setpoint heating1*1;
           cooling_base_setpoint cooling2*1;
           period 900;
           average_target current_price_mean_24h;
           standard_deviation_target current_price_stdev_24h;
           target air_temperature;
           heating_setpoint heating_setpoint;
           heating_demand last_heating_load;
           cooling_setpoint cooling_setpoint;
           cooling_demand last_cooling_load;
           deadband thermostat_deadband;
           total hvac_load;
           load hvac_load;
           state power_state;
           object multi_recorder {
                property bid_price,bid_quantity,house9B_tm_B_9_645:power_state,house9B_tm_B_9_645:air_temperature,house9B_tm_B_9_645:system_mode,house9B_tm_B_9_645:hvac_load,house9B_tm_B_9_645:outdoor_temperature,house9B_tm_B_9_645:heating_setpoint,house9B_tm_B_9_645:cooling_setpoint,house9B_tm_B_9_645:design_heating_capacity,house9B_tm_B_9_645:design_cooling_capacity,house9B_tm_B_9_645:heating_COP,house9B_tm_B_9_645:cooling_COP,house9B_tm_B_9_645:heating_demand,house9B_tm_B_9_645:cooling_demand;
                file "house9B_tm_B_9_645.csv";
                interval 900;
                limit 1111111111168;
           };
       };

     thermal_integrity_level 5;
     air_temperature 70;
     mass_temperature 70;
     cooling_COP 2.6;
     object ZIPload {
           base_power LIGHTS*0.64;
           schedule_skew -1191;
           heatgain_fraction 0.9;
           power_pf 1.000;
           current_pf 1.000;
           impedance_pf 1.000;
           impedance_fraction 0.300000;
           current_fraction 0.300000;
           power_fraction 0.400000;
     };
     object waterheater {
          schedule_skew -1191;
          tank_volume 50;
          heating_element_capacity 4.7 kW;
          tank_setpoint 124.8;
          temperature 135;
          thermostat_deadband 2.1;
          location INSIDE;
          tank_UA 3.8;
          demand water9*1;
          object passive_controller {
          	  period 900;
               control_mode PROBABILITY_OFF;
          	  distribution_type NORMAL;
          	  observation_object Market_pool;
          	  expectation_object Market_pool;
          	  comfort_level 1.00;
          	  state_property override;
          	  observation_property current_market.clearing_price;
          	  stdev_observation_property current_price_stdev_24h;
          	  expectation_property current_price_mean_24h;
          };
     };

}

object triplex_line {
       name tl_B_10_645;
       phases BS;
       from tn_B_645;
       to tm_B_10_645;
       length 13.24;
       configuration trip_line_config_1;
       groupid Triplex_Line;
}

object triplex_meter {
       name tm_B_10_645;
       phases BS;
       nominal_voltage 120;
       groupid House_Meter;
}

object house {
     parent tm_B_10_645;
     name house10B_tm_B_10_645;
     floor_area 2177;
     schedule_skew -1629;
     heating_system_type HEAT_PUMP;
     heating_COP 3.5;
     cooling_system_type ELECTRIC;

     object controller {
           schedule_skew -1629;
           market Market_pool;
           bid_mode ON;
           control_mode DOUBLE_RAMP;
           resolve_mode DEADBAND;
           slider_setting_heat 0.500;
           slider_setting_cool 0.500;
           heating_base_setpoint heating2*1;
           cooling_base_setpoint cooling2*1;
           period 900;
           average_target current_price_mean_24h;
           standard_deviation_target current_price_stdev_24h;
           target air_temperature;
           heating_setpoint heating_setpoint;
           heating_demand last_heating_load;
           cooling_setpoint cooling_setpoint;
           cooling_demand last_cooling_load;
           deadband thermostat_deadband;
           total hvac_load;
           load hvac_load;
           state power_state;
           object multi_recorder {
                property bid_price,bid_quantity,house10B_tm_B_10_645:power_state,house10B_tm_B_10_645:air_temperature,house10B_tm_B_10_645:system_mode,house10B_tm_B_10_645:hvac_load,house10B_tm_B_10_645:outdoor_temperature,house10B_tm_B_10_645:heating_setpoint,house10B_tm_B_10_645:cooling_setpoint,house10B_tm_B_10_645:design_heating_capacity,house10B_tm_B_10_645:design_cooling_capacity,house10B_tm_B_10_645:heating_COP,house10B_tm_B_10_645:cooling_COP,house10B_tm_B_10_645:heating_demand,house10B_tm_B_10_645:cooling_demand;
                file "house10B_tm_B_10_645.csv";
                interval 900;
                limit 1111111111168;
           };
       };

     thermal_integrity_level 5;
     air_temperature 70;
     mass_temperature 70;
     cooling_COP 2.9;
     object ZIPload {
           base_power LIGHTS*1.00;
           schedule_skew -1629;
           heatgain_fraction 0.9;
           power_pf 1.000;
           current_pf 1.000;
           impedance_pf 1.000;
           impedance_fraction 0.300000;
           current_fraction 0.300000;
           power_fraction 0.400000;
     };
     object waterheater {
          schedule_skew -1629;
          tank_volume 50;
          heating_element_capacity 4.9 kW;
          tank_setpoint 126.1;
          temperature 135;
          thermostat_deadband 6.0;
          location INSIDE;
          tank_UA 3.1;
          demand water17*1;
          object passive_controller {
          	  period 900;
               control_mode PROBABILITY_OFF;
          	  distribution_type NORMAL;
          	  observation_object Market_pool;
          	  expectation_object Market_pool;
          	  comfort_level 1.00;
          	  state_property override;
          	  observation_property current_market.clearing_price;
          	  stdev_observation_property current_price_stdev_24h;
          	  expectation_property current_price_mean_24h;
          };
     };

}

object triplex_line {
       name tl_B_11_645;
       phases BS;
       from tn_B_645;
       to tm_B_11_645;
       length 17.55;
       configuration trip_line_config_1;
       groupid Triplex_Line;
}

object triplex_meter {
       name tm_B_11_645;
       phases BS;
       nominal_voltage 120;
       groupid House_Meter;
}

object house {
     parent tm_B_11_645;
     name house11B_tm_B_11_645;
     floor_area 2705;
     schedule_skew 267;
     heating_system_type HEAT_PUMP;
     heating_COP 3.5;
     cooling_system_type ELECTRIC;

     object controller {
           schedule_skew 267;
           market Market_pool;
           bid_mode ON;
           control_mode DOUBLE_RAMP;
           resolve_mode DEADBAND;
           slider_setting_heat 0.500;
           slider_setting_cool 0.500;
           heating_base_setpoint heating4*1;
           cooling_base_setpoint cooling1*1;
           period 900;
           average_target current_price_mean_24h;
           standard_deviation_target current_price_stdev_24h;
           target air_temperature;
           heating_setpoint heating_setpoint;
           heating_demand last_heating_load;
           cooling_setpoint cooling_setpoint;
           cooling_demand last_cooling_load;
           deadband thermostat_deadband;
           total hvac_load;
           load hvac_load;
           state power_state;
           object multi_recorder {
                property bid_price,bid_quantity,house11B_tm_B_11_645:power_state,house11B_tm_B_11_645:air_temperature,house11B_tm_B_11_645:system_mode,house11B_tm_B_11_645:hvac_load,house11B_tm_B_11_645:outdoor_temperature,house11B_tm_B_11_645:heating_setpoint,house11B_tm_B_11_645:cooling_setpoint,house11B_tm_B_11_645:design_heating_capacity,house11B_tm_B_11_645:design_cooling_capacity,house11B_tm_B_11_645:heating_COP,house11B_tm_B_11_645:cooling_COP,house11B_tm_B_11_645:heating_demand,house11B_tm_B_11_645:cooling_demand;
                file "house11B_tm_B_11_645.csv";
                interval 900;
                limit 1111111111168;
           };
       };

     thermal_integrity_level 5;
     air_temperature 70;
     mass_temperature 70;
     cooling_COP 3.3;
     object ZIPload {
           base_power LIGHTS*1.30;
           schedule_skew 267;
           heatgain_fraction 0.9;
           power_pf 1.000;
           current_pf 1.000;
           impedance_pf 1.000;
           impedance_fraction 0.300000;
           current_fraction 0.300000;
           power_fraction 0.400000;
     };
     object waterheater {
          schedule_skew 267;
          tank_volume 50;
          heating_element_capacity 4.4 kW;
          tank_setpoint 134.0;
          temperature 135;
          thermostat_deadband 3.8;
          location INSIDE;
          tank_UA 3.8;
          demand water15*1;
          object passive_controller {
          	  period 900;
               control_mode PROBABILITY_OFF;
          	  distribution_type NORMAL;
          	  observation_object Market_pool;
          	  expectation_object Market_pool;
          	  comfort_level 1.00;
          	  state_property override;
          	  observation_property current_market.clearing_price;
          	  stdev_observation_property current_price_stdev_24h;
          	  expectation_property current_price_mean_24h;
          };
     };

}

object triplex_line {
       name tl_B_12_645;
       phases BS;
       from tn_B_645;
       to tm_B_12_645;
       length 17.36;
       configuration trip_line_config_1;
       groupid Triplex_Line;
}

object triplex_meter {
       name tm_B_12_645;
       phases BS;
       nominal_voltage 120;
       groupid House_Meter;
}

object house {
     parent tm_B_12_645;
     name house12B_tm_B_12_645;
     floor_area 1935;
     schedule_skew -490;
     heating_system_type GAS;
     cooling_system_type ELECTRIC;

     object controller {
           schedule_skew -490;
           market Market_pool;
           bid_mode ON;
           control_mode DOUBLE_RAMP;
           resolve_mode DEADBAND;
           slider_setting_heat 0.500;
           slider_setting_cool 0.500;
           heating_base_setpoint heating8*1;
           cooling_base_setpoint cooling8*1;
           period 900;
           average_target current_price_mean_24h;
           standard_deviation_target current_price_stdev_24h;
           target air_temperature;
           heating_setpoint heating_setpoint;
           heating_demand last_heating_load;
           cooling_setpoint cooling_setpoint;
           cooling_demand last_cooling_load;
           deadband thermostat_deadband;
           total hvac_load;
           load hvac_load;
           state power_state;
           object multi_recorder {
                property bid_price,bid_quantity,house12B_tm_B_12_645:power_state,house12B_tm_B_12_645:air_temperature,house12B_tm_B_12_645:system_mode,house12B_tm_B_12_645:hvac_load,house12B_tm_B_12_645:outdoor_temperature,house12B_tm_B_12_645:heating_setpoint,house12B_tm_B_12_645:cooling_setpoint,house12B_tm_B_12_645:design_heating_capacity,house12B_tm_B_12_645:design_cooling_capacity,house12B_tm_B_12_645:heating_COP,house12B_tm_B_12_645:cooling_COP,house12B_tm_B_12_645:heating_demand,house12B_tm_B_12_645:cooling_demand;
                file "house12B_tm_B_12_645.csv";
                interval 900;
                limit 1111111111168;
           };
       };

     thermal_integrity_level 4;
     air_temperature 70;
     mass_temperature 70;
     cooling_COP 3.8;
     object ZIPload {
           base_power LIGHTS*1.00;
           schedule_skew -490;
           heatgain_fraction 0.9;
           power_pf 1.000;
           current_pf 1.000;
           impedance_pf 1.000;
           impedance_fraction 0.300000;
           current_fraction 0.300000;
           power_fraction 0.400000;
     };
}

object triplex_line {
       name tl_B_13_645;
       phases BS;
       from tn_B_645;
       to tm_B_13_645;
       length 19.88;
       configuration trip_line_config_1;
       groupid Triplex_Line;
}

object triplex_meter {
       name tm_B_13_645;
       phases BS;
       nominal_voltage 120;
       groupid House_Meter;
}

object house {
     parent tm_B_13_645;
     name house13B_tm_B_13_645;
     floor_area 2386;
     schedule_skew 1442;
     heating_system_type HEAT_PUMP;
     heating_COP 2.7;
     cooling_system_type ELECTRIC;

     object controller {
           schedule_skew 1442;
           market Market_pool;
           bid_mode ON;
           control_mode DOUBLE_RAMP;
           resolve_mode DEADBAND;
           slider_setting_heat 0.500;
           slider_setting_cool 0.500;
           heating_base_setpoint heating4*1;
           cooling_base_setpoint cooling7*1;
           period 900;
           average_target current_price_mean_24h;
           standard_deviation_target current_price_stdev_24h;
           target air_temperature;
           heating_setpoint heating_setpoint;
           heating_demand last_heating_load;
           cooling_setpoint cooling_setpoint;
           cooling_demand last_cooling_load;
           deadband thermostat_deadband;
           total hvac_load;
           load hvac_load;
           state power_state;
           object multi_recorder {
                property bid_price,bid_quantity,house13B_tm_B_13_645:power_state,house13B_tm_B_13_645:air_temperature,house13B_tm_B_13_645:system_mode,house13B_tm_B_13_645:hvac_load,house13B_tm_B_13_645:outdoor_temperature,house13B_tm_B_13_645:heating_setpoint,house13B_tm_B_13_645:cooling_setpoint,house13B_tm_B_13_645:design_heating_capacity,house13B_tm_B_13_645:design_cooling_capacity,house13B_tm_B_13_645:heating_COP,house13B_tm_B_13_645:cooling_COP,house13B_tm_B_13_645:heating_demand,house13B_tm_B_13_645:cooling_demand;
                file "house13B_tm_B_13_645.csv";
                interval 900;
                limit 1111111111168;
           };
       };

     thermal_integrity_level 2;
     air_temperature 70;
     mass_temperature 70;
     cooling_COP 3.3;
     object ZIPload {
           base_power LIGHTS*0.77;
           schedule_skew 1442;
           heatgain_fraction 0.9;
           power_pf 1.000;
           current_pf 1.000;
           impedance_pf 1.000;
           impedance_fraction 0.300000;
           current_fraction 0.300000;
           power_fraction 0.400000;
     };
     object waterheater {
          schedule_skew 1442;
          tank_volume 50;
          heating_element_capacity 4.4 kW;
          tank_setpoint 129.3;
          temperature 135;
          thermostat_deadband 5.7;
          location INSIDE;
          tank_UA 3.1;
          demand water12*1;
          object passive_controller {
          	  period 900;
               control_mode PROBABILITY_OFF;
          	  distribution_type NORMAL;
          	  observation_object Market_pool;
          	  expectation_object Market_pool;
          	  comfort_level 1.00;
          	  state_property override;
          	  observation_property current_market.clearing_price;
          	  stdev_observation_property current_price_stdev_24h;
          	  expectation_property current_price_mean_24h;
          };
     };

}

object triplex_line {
       name tl_B_14_645;
       phases BS;
       from tn_B_645;
       to tm_B_14_645;
       length 13.58;
       configuration trip_line_config_1;
       groupid Triplex_Line;
}

object triplex_meter {
       name tm_B_14_645;
       phases BS;
       nominal_voltage 120;
       groupid House_Meter;
}

object house {
     parent tm_B_14_645;
     name house14B_tm_B_14_645;
     floor_area 2333;
     schedule_skew 334;
     heating_system_type GAS;
     cooling_system_type ELECTRIC;

     object controller {
           schedule_skew 334;
           market Market_pool;
           bid_mode ON;
           control_mode DOUBLE_RAMP;
           resolve_mode DEADBAND;
           slider_setting_heat 0.500;
           slider_setting_cool 0.500;
           heating_base_setpoint heating3*1;
           cooling_base_setpoint cooling4*1;
           period 900;
           average_target current_price_mean_24h;
           standard_deviation_target current_price_stdev_24h;
           target air_temperature;
           heating_setpoint heating_setpoint;
           heating_demand last_heating_load;
           cooling_setpoint cooling_setpoint;
           cooling_demand last_cooling_load;
           deadband thermostat_deadband;
           total hvac_load;
           load hvac_load;
           state power_state;
           object multi_recorder {
                property bid_price,bid_quantity,house14B_tm_B_14_645:power_state,house14B_tm_B_14_645:air_temperature,house14B_tm_B_14_645:system_mode,house14B_tm_B_14_645:hvac_load,house14B_tm_B_14_645:outdoor_temperature,house14B_tm_B_14_645:heating_setpoint,house14B_tm_B_14_645:cooling_setpoint,house14B_tm_B_14_645:design_heating_capacity,house14B_tm_B_14_645:design_cooling_capacity,house14B_tm_B_14_645:heating_COP,house14B_tm_B_14_645:cooling_COP,house14B_tm_B_14_645:heating_demand,house14B_tm_B_14_645:cooling_demand;
                file "house14B_tm_B_14_645.csv";
...